[TITLE]
 EPANET Example Network 1
A simple example of modeling chlorine decay. Both bulk and
wall reactions are included. 

[JUNCTIONS]
;;ID                             	Elev        	Demand      	Pattern                        
 10                             	216.4080    
 11                             	216.4080    
 12                             	213.3600    
 13                             	211.8360    
 21                             	213.3600    
 22                             	211.8360    
 23                             	210.3120    
 31                             	213.3600    
 32                             	216.4080    

[RESERVOIRS]
;;ID                             	Head        	Pattern                        
 9                              	243.8400    	                               

[TANKS]
;;ID                             	Elevation   	InitLevel   	MinLevel    	MaxLevel    	Diameter    	MinVol      	VolCurve                       	Overflow    
 2                              	259.0800    	36.5760     	30.4800     	45.7200     	15.3924     	5671.7558   	                               

[PIPES]
;;ID                             	Node1                          	Node2                          	Length      	Diameter    	Roughness   	MinorLoss   	Status
 10                             	10                             	11                             	3209.5440   	457.2000    	100.0000    	0.0000      	      
 11                             	11                             	12                             	1609.3440   	355.6000    	100.0000    	0.0000      	      
 12                             	12                             	13                             	1609.3440   	254.0000    	100.0000    	0.0000      	      
 21                             	21                             	22                             	1609.3440   	254.0000    	100.0000    	0.0000      	      
 22                             	22                             	23                             	1609.3440   	304.8000    	100.0000    	0.0000      	      
 31                             	31                             	32                             	1609.3440   	152.4000    	100.0000    	0.0000      	      
 110                            	2                              	12                             	60.9600     	457.2000    	100.0000    	0.0000      	      
 111                            	11                             	21                             	1609.3440   	254.0000    	100.0000    	0.0000      	      
 112                            	12                             	22                             	1609.3440   	304.8000    	100.0000    	0.0000      	      
 113                            	13                             	23                             	1609.3440   	203.2000    	100.0000    	0.0000      	      
 121                            	21                             	31                             	1609.3440   	203.2000    	100.0000    	0.0000      	      
 122                            	22                             	32                             	1609.3440   	152.4000    	100.0000    	0.0000      	      

[PUMPS]
;;ID                             	Node1                          	Node2                          	Parameters  
 9                              	9                              	10                             	HEAD 1

[VALVES]
;;ID                             	Node1                          	Node2                          	Diameter    	Type  	Setting     	MinorLoss   

[DEMANDS]
;;Junction                       	Demand        	Pattern                        	Category                       
 11                             	34.068502     	demand_11                      
 12                             	34.068502     	demand_12                      
 13                             	22.712335     	demand_13                      
 21                             	34.068502     	demand_21                      
 22                             	45.424670     	demand_22                      
 23                             	34.068502     	demand_23                      
 31                             	22.712335     	demand_31                      
 32                             	22.712335     	demand_32                      

[EMITTERS]
;;Junction                       	Coefficient   

[LEAKAGE]
;;Pipe                           	Leak Area     	Leak Expansion

[STATUS]
;;ID                             	Status/Setting

[PATTERNS]
;;ID                             	Multipliers 
 demand_10                      	0.6063      	0.5105      	0.4581      	0.3993      	0.3598      	0.3096      
 demand_10                      	0.3824      	0.4146      	0.4191      	0.4665      	0.5463      	0.6661      
 demand_10                      	0.8270      	0.8863      	0.9757      	1.0610      	1.1185      	1.0420      
 demand_10                      	1.2990      	1.2092      	1.3957      	1.2542      	1.3683      	1.2473      
 demand_10                      	1.2327      	1.1488      	1.0695      	1.1014      	0.8650      	0.9520      
 demand_10                      	0.9596      	0.8973      	0.8733      	0.8827      	0.9547      	0.9309      
 demand_10                      	0.9877      	0.9878      	0.9697      	1.0868      	1.1140      	1.0833      
 demand_10                      	1.1245      	0.9407      	0.9297      	0.8040      	0.7783      	0.6166      
 demand_10                      	0.6106      	0.4993      	0.4053      	0.4495      	0.3914      	0.3969      
 demand_10                      	0.3652      	0.4074      	0.4097      	0.4897      	0.6332      	0.6441      
 demand_10                      	0.7945      	0.8163      	1.0216      	1.0454      	1.1154      	1.1668      
 demand_10                      	1.1408      	1.2367      	1.2246      	1.2226      	1.1033      	1.1273      
 demand_10                      	1.1724      	1.1966      	1.1189      	0.9657      	0.9945      	1.0046      
 demand_10                      	0.8638      	0.9821      	0.9702      	0.9782      	0.9883      	0.9752      
 demand_10                      	1.0174      	1.0147      	1.0918      	1.0639      	1.1076      	1.1797      
 demand_10                      	1.0445      	0.9361      	1.0453      	0.8529      	0.7665      	0.6616      
 demand_10                      	0.6265      	0.5127      	0.4498      	0.3781      	0.4347      	0.3514      
 demand_10                      	0.3590      	0.4012      	0.5004      	0.5311      	0.5972      	0.6290      
 demand_10                      	0.7460      	0.9305      	0.9496      	0.9838      	1.0845      	1.2122      
 demand_10                      	1.2191      	1.2192      	1.3420      	1.1499      	1.3275      	1.1250      
 demand_10                      	1.1480      	1.1234      	1.1058      	1.0579      	1.0791      	0.9221      
 demand_10                      	0.9211      	0.9524      	0.9801      	0.8991      	0.9465      	0.9585      
 demand_10                      	1.0316      	1.0045      	1.0475      	1.0558      	1.1355      	0.9683      
 demand_10                      	1.0330      	0.9654      	0.9284      	0.8128      	0.7577      	0.7265      
 demand_10                      	0.6473      	0.5639      	0.4583      	0.4098      	0.4132      	0.3676      
 demand_10                      	0.3543      	0.4246      	0.4698      	0.4568      	0.5988      	0.7414      
 demand_10                      	0.7497      	0.9047      	1.0297      	1.0712      	1.0645      	1.1906      
 demand_10                      	1.2064      	1.1943      	1.2177      	1.2648      	1.1752      	1.1106      
 demand_10                      	1.1337      	0.9887      	0.9749      	1.0936      	1.0229      	0.9578      
 demand_10                      	0.9193      	0.9994      	0.9702      	1.0164      	0.9793      	1.0106      
 demand_10                      	1.0935      	0.9566      	0.9996      	1.0848      	1.0880      	0.9933      
 demand_10                      	1.0046      	1.0400      	0.9619      	0.8906      	0.7810      	0.8057      
 demand_10                      	0.6307      	0.5674      	0.5226      	0.4343      	0.4155      	0.3678      
 demand_10                      	0.3875      	0.4153      	0.4845      	0.5349      	0.7025      	0.7716      
 demand_10                      	0.8772      	1.0034      	1.1745      	1.2375      	1.1977      	1.2939      
 demand_10                      	1.3934      	1.5101      	1.3591      	1.2429      	1.3759      	1.2965      
 demand_10                      	1.2149      	1.2391      	1.2134      	1.0560      	1.0683      	0.9468      
 demand_10                      	1.0593      	0.9686      	1.0156      	0.9957      	1.0462      	1.0706      
 demand_10                      	1.2074      	0.9934      	1.0375      	1.0545      	1.0894      	1.0610      
 demand_10                      	0.9845      	0.9960      	0.9496      	0.8352      	0.7844      	0.7861      
 demand_10                      	0.6618      	0.6322      	0.5945      	0.5404      	0.4670      	0.4462      
 demand_10                      	0.4310      	0.4263      	0.4521      	0.4450      	0.5225      	0.5124      
 demand_10                      	0.6588      	0.7109      	0.8373      	0.8643      	0.9639      	1.0457      
 demand_10                      	1.0267      	1.0555      	1.1928      	1.1613      	1.1834      	1.2070      
 demand_10                      	1.1210      	1.1522      	1.0760      	1.0274      	1.0496      	1.0597      
 demand_10                      	1.0753      	1.0237      	1.0651      	1.0845      	1.0964      	1.0552      
 demand_10                      	1.0552      	0.9247      	1.0832      	1.0000      	0.9451      	0.8642      
 demand_10                      	0.8938      	0.8118      	0.8382      	0.7730      	0.7572      	0.6682      
 demand_10                      	0.6250      	0.5328      	0.5570      	0.4885      	0.4033      	0.4105      
 demand_10                      	0.4371      	0.4424      	0.4339      	0.4224      	0.4370      	0.4730      
 demand_10                      	0.5111      	0.5567      	0.7131      	0.7043      	0.7563      	0.8355      
 demand_10                      	0.9050      	0.9239      	1.0576      	1.1384      	1.0196      	1.1162      
 demand_10                      	1.0710      	1.0286      	0.9905      	1.0597      	0.9719      	0.9214      
 demand_10                      	1.0614      	0.9491      	1.0058      	0.8610      	0.8648      	0.9556      
 demand_10                      	0.9615      	1.0169      	1.0408      	0.9515      	0.9275      	0.9845      
 demand_10                      	0.9560      	0.9114      	0.8790      	0.7702      	0.7164      	0.6523      
 demand_10                      	0.6030      	0.5113      	0.4776      	0.3797      	0.4009      	0.3384      
 demand_10                      	0.3889      	0.4273      	0.4258      	0.5072      	0.5394      	0.6598      
 demand_10                      	0.8202      	0.8074      	0.9949      	1.0775      	1.1914      	1.1648      
 demand_10                      	1.2124      	1.3198      	1.2980      	1.2827      	1.2920      	1.2823      
 demand_10                      	1.1637      	1.1482      	1.0531      	1.0658      	1.0328      	0.9953      
 demand_10                      	0.9274      	0.9215      	0.9077      	0.9141      	0.9677      	0.9591      
 demand_10                      	0.9201      	1.0524      	0.9949      	1.1301      	1.1847      	1.0801      
 demand_10                      	1.0255      	0.9045      	0.9469      	0.7931      	0.7510      	0.6436      
 demand_10                      	0.6689      	0.5383      	0.4880      	0.3937      	0.3866      	0.3837      
 demand_10                      	0.3785      	0.3792      	0.4394      	0.4930      	0.5989      	0.6781      
 demand_10                      	0.7601      	0.8110      	0.9661      	0.9643      	1.1369      	1.2020      
 demand_10                      	1.1423      	1.1658      	1.2983      	1.2408      	1.1619      	1.1323      
 demand_10                      	1.1432      	1.1519      	1.1006      	1.0132      	1.0281      	0.9738      
 demand_10                      	0.9656      	0.8576      	0.9585      	0.9957      	0.9739      	0.9840      
 demand_10                      	1.0732      	1.0681      	1.1567      	1.1147      	1.1589      	1.1786      
 demand_10                      	1.0395      	1.0212      	0.9646      	0.8155      	0.6963      	0.7396      
 demand_10                      	0.6058      	0.5728      	0.4513      	0.3880      	0.3834      	0.3313      
 demand_10                      	0.3874      	0.3691      	0.4317      	0.5182      	0.5773      	0.6251      
 demand_10                      	0.7981      	0.8625      	1.0682      	1.0721      	1.0824      	1.0542      
 demand_10                      	1.2040      	1.2655      	1.2882      	1.1412      	1.2782      	1.2376      
 demand_10                      	1.1486      	1.1125      	1.1308      	1.0137      	0.9757      	1.0170      
 demand_10                      	1.1031      	0.9305      	0.9526      	1.0804      	0.9175      	1.0311      
 demand_10                      	1.0493      	0.9913      	1.0621      	1.0223      	1.0064      	1.1246      
 demand_10                      	0.9568      	0.9910      	0.8658      	0.8828      	0.7936      	0.6878      
 demand_10                      	0.6302      	0.5361      	0.4772      	0.4318      	0.4140      	0.3951      
 demand_10                      	0.3877      	0.3745      	0.5050      	0.5491      	0.5904      	0.6685      
 demand_10                      	0.7540      	0.9032      	0.9120      	0.9978      	1.0621      	1.2273      
 demand_10                      	1.0691      	1.2182      	1.1913      	1.2215      	1.2019      	1.2155      
 demand_10                      	1.1489      	1.1113      	1.2102      	0.9959      	1.0198      	0.9002      
 demand_10                      	1.0508      	0.9207      	0.9549      	1.0794      	0.9564      	0.9895      
 demand_10                      	1.0076      	1.0326      	1.1224      	1.1463      	1.1540      	1.0600      
 demand_10                      	0.9783      	1.0376      	0.9652      	0.9483      	0.8117      	0.7041      
 demand_10                      	0.6509      	0.5672      	0.4929      	0.4802      	0.4098      	0.4118      
 demand_10                      	0.4015      	0.4480      	0.4967      	0.5762      	0.6952      	0.6935      
 demand_10                      	0.9169      	0.9966      	1.2073      	1.1671      	1.3538      	1.3414      
 demand_10                      	1.4434      	1.3708      	1.3854      	1.3901      	1.4501      	1.3949      
 demand_10                      	1.2952      	1.1034      	1.1981      	1.0275      	1.0769      	1.1334      
 demand_10                      	1.1204      	1.0499      	1.1516      	0.9914      	1.0888      	1.1947      
 demand_10                      	1.0875      	1.0749      	1.0329      	1.1042      	1.0726      	1.1039      
 demand_10                      	1.0329      	0.9919      	0.8318      	0.8911      	0.8099      	0.7038      
 demand_10                      	0.6956      	0.6810      	0.5946      	0.5393      	0.4820      	0.4287      
 demand_10                      	0.4413      	0.4348      	0.4282      	0.4784      	0.5201      	0.6091      
 demand_10                      	0.6153      	0.7260      	0.7988      	0.8864      	0.8995      	1.0345      
 demand_10                      	1.0887      	1.1717      	1.2240      	1.1983      	1.2418      	1.2475      
 demand_10                      	1.0816      	1.1083      	1.1433      	1.0357      	1.0819      	0.9752      
 demand_10                      	1.1039      	1.0267      	1.1317      	1.0400      	1.1211      	1.1151      
 demand_10                      	1.0494      	1.0404      	1.0259      	1.0157      	1.0051      	0.9899      
 demand_10                      	0.9325      	0.8258      	0.7929      	0.7686      	0.7222      	0.7069      
 demand_10                      	0.6270      	0.6450      	0.5357      	0.5119      	0.4701      	0.4729      
 demand_10                      	0.4109      	0.4190      	0.4432      	0.4045      	0.4490      	0.4792      
 demand_10                      	0.5230      	0.6284      	0.7132      	0.7119      	0.7276      	0.8504      
 demand_10                      	0.9246      	0.9519      	0.9644      	1.2332      	1.1009      	1.1290      
 demand_10                      	1.1760      	1.0466      	1.0535      	1.1116      	0.9989      	1.0155      
 demand_10                      	0.8650      	0.8967      	0.8937      	1.0207      	1.0097      	0.9676      
 demand_10                      	0.9947      	1.0280      	0.9402      	0.9858      	0.9856      	0.9556      
 demand_10                      	0.9500      	0.8534      	0.8402      	0.8268      	0.7163      	0.7059      
 demand_10                      	0.6087      	0.5236      	0.4903      	0.3858      	0.3533      	0.3883      
 demand_10                      	0.3871      	0.3324      	0.4511      	0.5109      	0.5854      	0.6475      
 demand_10                      	0.7755      	0.8649      	0.9730      	1.1142      	1.1132      	1.1738      
 demand_10                      	1.2626      	1.3393      	1.3659      	1.4578      	1.2850      	1.1353      
 demand_10                      	1.2462      	1.1448      	1.2432      	1.0866      	1.0340      	0.9373      
 demand_10                      	0.9371      	0.8615      	0.9845      	0.9918      	0.9238      	1.0040      
 demand_10                      	1.0500      	0.9848      	1.1036      	1.0656      	1.0487      	1.1121      
 demand_10                      	1.1335      	1.0202      	1.0000      	0.8622      	0.8482      	0.6966      
 demand_10                      	0.6266      	0.5455      	0.4781      	0.4515      	0.4200      	0.3675      
 demand_10                      	0.3717      	0.4458      	0.4297      	0.5130      	0.6301      	0.6261      
 demand_10                      	0.8330      	0.8834      	0.9374      	1.0407      	1.1448      	1.1052      
 demand_10                      	1.2090      	1.1817      	1.2951      	1.1437      	1.3343      	1.2479      
 demand_10                      	1.1313      	1.1372      	1.1291      	1.0681      	0.9806      	0.9319      
 demand_10                      	0.9568      	0.8808      	0.9625      	1.0319      	1.0107      	1.0575      
 demand_10                      	1.0931      	1.0099      	1.1813      	1.1002      	1.1475      	1.1260      
 demand_10                      	1.0497      	1.0203      	0.9745      	0.9069      	0.7684      	0.6730      
 demand_10                      	0.5608      	0.5677      	0.4479      	0.4467      	0.4204      	0.4181      
 demand_10                      	0.3888      	0.4479      	0.4751      	0.5288      	0.6247      	0.7147      
 demand_10                      	0.8120      	0.8912      	0.9307      	1.0647      	1.0619      	1.2636      
 demand_10                      	1.1842      	1.2208      	1.2661      	1.3093      	1.2391      	1.3050      
 demand_10                      	1.1383      	1.1861      	1.1885      	1.1131      	1.0572      	1.0876      
 demand_10                      	0.9693      	0.9727      	1.0123      	0.9486      	1.0779      	1.0387      
 demand_10                      	1.0998      	1.0362      	1.1000      	1.1963      	1.0493      	1.2098      
 demand_10                      	0.9981      	0.9491      	1.0217      	0.8368      	0.7763      	0.7819      
 demand_10                      	0.6667      	0.5450      	0.5005      	0.4420      	0.3755      	0.3881      
 demand_10                      	0.4212      	0.4189      	0.4864      	0.5405      	0.5844      	0.6587      
 demand_10                      	0.8098      	0.9183      	1.0493      	0.9862      	1.0859      	1.2112      
 demand_10                      	1.1667      	1.3206      	1.2123      	1.3901      	1.1298      	1.2290      
 demand_10                      	1.2850      	1.0451      	1.0722      	1.1485      	1.0781      	0.9491      
 demand_10                      	0.9576      	1.0176      	1.0961      	0.9010      	1.0620      	1.0558      
 demand_10                      	0.9878      	1.1354      	1.1770      	1.1508      	1.0708      	1.0756      
 demand_10                      	1.0488      	1.0530      	1.0318      	0.8871      	0.8604      	0.7628      
 demand_10                      	0.6909      	0.5532      	0.4737      	0.4668      	0.4588      	0.3806      
 demand_10                      	0.4190      	0.4249      	0.4811      	0.5652      	0.7309      	0.8041      
 demand_10                      	0.9444      	0.9885      	1.1191      	1.2736      	1.3250      	1.3572      
 demand_10                      	1.4887      	1.4310      	1.4410      	1.3483      	1.4074      	1.3764      
 demand_10                      	1.2595      	1.1814      	1.1032      	1.1727      	1.1498      	1.0191      
 demand_10                      	1.1471      	1.1344      	1.0542      	0.9935      	1.1428      	1.0728      
 demand_10                      	1.0650      	1.1394      	1.1108      	1.1585      	1.1298      	1.0541      
 demand_10                      	1.0275      	1.0044      	0.9307      	0.9487      	0.8576      	0.7755      
 demand_10                      	0.7301      	0.5891      	0.5846      	0.5026      	0.4842      	0.4355      
 demand_10                      	0.4242      	0.4442      	0.4376      	0.4754      	0.5534      	0.5712      
 demand_10                      	0.6881      	0.7420      	0.8274      	0.8193      	0.9450      	1.0346      
 demand_10                      	1.1106      	1.1391      	1.2490      	1.2813      	1.2630      	1.2823      
 demand_10                      	1.1614      	1.2131      	1.1434      	1.1197      	1.0983      	1.0304      
 demand_10                      	1.1216      	1.0548      	1.1052      	1.1128      	1.0235      	1.0163      
 demand_10                      	1.0454      	1.0930      	0.9355      	1.0807      	1.0143      	0.9724      
 demand_10                      	0.9162      	0.9470      	0.7250      	0.7735      	0.6619      	0.5965      
 demand_10                      	0.6045      	0.5991      	0.4965      	0.4768      	0.4859      	0.4561      
 demand_10                      	0.4106      	0.3982      	0.4294      	0.4324      	0.4842      	0.5300      
 demand_10                      	0.5347      	0.5687      	0.6973      	0.7104      	0.8701      	0.8162      
 demand_10                      	0.9340      	0.9494      	1.0852      	1.0851      	1.1372      	1.0838      
 demand_10                      	1.0691      	1.1358      	1.0299      	1.0647      	0.9838      	0.9128      
 demand_10                      	0.9715      	0.8895      	0.9848      	0.9336      	0.9360      	1.0208      
 demand_10                      	0.9908      	0.9428      	0.9952      	1.0527      	1.0488      	1.0038      
 demand_10                      	1.0121      	0.9995      	0.8730      	0.8106      	0.7381      	0.6511      
 demand_10                      	0.5783      	0.5347      	0.4781      	0.4323      	0.3741      	0.3919      
 demand_10                      	0.3669      	0.3942      	0.4829      	0.5008      	0.5698      	0.7172      
 demand_10                      	0.7544      	0.9244      	0.9850      	1.0559      	1.2163      	1.1717      
 demand_10                      	1.3228      	1.2232      	1.4468      	1.3213      	1.4212      	1.3072      
 demand_10                      	1.2926      	1.2468      	1.0364      	1.1093      	1.1071      	0.9593      
 demand_10                      	0.8735      	0.9203      	0.9492      	0.9261      	0.9032      	1.0802      
 demand_10                      	1.0253      	1.0909      	1.1270      	1.1990      	1.1066      	0.9659      
 demand_10                      	1.0589      	1.0893      	1.0336      	0.8394      	0.8142      	0.7592      
 demand_10                      	0.6232      	0.5481      	0.5535      	0.4677      	0.4235      	0.4062      
 demand_10                      	0.3785      	0.4503      	0.4837      	0.5683      	0.6313      	0.7221      
 demand_10                      	0.8210      	0.8738      	0.9482      	1.1611      	1.0521      	1.1428      
 demand_10                      	1.2887      	1.3072      	1.2662      	1.2711      	1.2469      	1.1507      
 demand_10                      	1.2513      	1.2079      	1.1116      	1.1100      	1.0099      	1.0419      
 demand_10                      	1.0839      	0.9659      	0.9939      	1.0170      	1.0054      	0.9724      
 demand_10                      	1.0578      	1.0997      	1.2075      	1.1188      	1.1455      	1.1037      
 demand_10                      	1.1017      	0.9379      	1.0417      	0.9766      	0.8078      	0.7813      
 demand_10                      	0.6564      	0.5758      	0.4860      	0.4768      	0.3978      	0.3912      
 demand_10                      	0.3686      	0.4135      	0.4941      	0.5227      	0.6105      	0.7393      
 demand_10                      	0.7980      	0.8033      	1.0333      	1.0513      	1.0992      	1.1643      
 demand_10                      	1.4008      	1.3211      	1.3861      	1.2505      	1.2525      	1.3744      
 demand_10                      	1.2167      	1.1972      	1.1543      	1.1489      	1.1405      	1.0744      
 demand_10                      	1.0236      	1.0146      	1.0257      	0.9807      	1.0499      	1.0147      
 demand_10                      	0.9488      	1.1158      	1.1922      	1.1275      	0.9544      	1.0666      
 demand_10                      	1.0796      	0.9624      	0.9451      	0.9101      	0.7463      	0.7236      
 demand_10                      	0.6508      	0.5839      	0.4886      	0.4239      	0.3905      	0.3453      
 demand_10                      	0.3991      	0.3962      	0.4445      	0.5481      	0.5436      	0.6692      
 demand_10                      	0.7865      	0.9032      	0.9996      	0.9931      	1.0898      	1.2911      
 demand_10                      	1.2547      	1.2281      	1.3971      	1.3706      	1.1919      	1.2032      
 demand_10                      	1.2145      	1.1189      	1.0631      	1.0541      	0.9890      	1.0347      
 demand_10                      	1.0222      	1.0554      	0.9950      	1.1373      	1.1168      	1.1209      
 demand_10                      	1.1560      	1.2099      	1.2459      	1.0715      	1.1920      	1.1290      
 demand_10                      	1.1127      	1.0063      	0.9432      	0.9457      	0.7862      	0.7864      
 demand_10                      	0.6972      	0.5716      	0.5049      	0.5055      	0.4419      	0.4059      
 demand_10                      	0.4189      	0.4732      	0.5204      	0.5750      	0.6301      	0.7607      
 demand_10                      	0.9069      	1.0713      	1.2450      	1.2726      	1.3461      	1.4289      
 demand_10                      	1.4307      	1.5732      	1.5132      	1.3729      	1.4601      	1.4146      
 demand_10                      	1.3941      	1.2574      	1.2155      	1.1537      	1.0688      	1.1299      
 demand_10                      	1.0368      	1.0817      	1.0433      	1.0400      	1.1523      	1.0546      
 demand_10                      	1.0490      	1.0899      	1.0941      	1.1203      	1.1277      	1.0643      
 demand_10                      	1.0243      	1.1316      	0.9588      	0.8332      	0.8568      	0.7777      
 demand_10                      	0.6695      	0.6652      	0.5793      	0.5542      	0.5217      	0.4631      
 demand_10                      	0.4894      	0.4822      	0.4731      	0.5129      	0.5087      	0.5937      
 demand_10                      	0.7164      	0.7182      	0.7870      	0.9711      	1.0261      	1.0530      
 demand_10                      	1.0573      	1.2719      	1.1498      	1.2865      	1.2117      	1.1327      
 demand_10                      	1.2137      	1.1637      	1.0970      	1.1826      	1.1638      	1.0934      
 demand_10                      	1.1290      	1.0378      	1.0558      	1.1966      	1.1778      	1.0962      
 demand_10                      	1.0773      	1.1259      	1.0851      	1.0232      	0.9524      	0.9703      
 demand_10                      	0.9539      	0.8065      	0.8633      	0.7826      	0.7508      	0.6665      
 demand_10                      	0.6371      	0.6096      	0.5462      	0.4944      	0.4770      	0.4473      
 demand_10                      	0.4081      	0.4504      	0.3915      	0.4152      	0.4555      	0.4864      
 demand_10                      	0.6075      	0.6366      	0.7096      	0.6921      	0.8910      	0.9312      
 demand_10                      	0.9135      	0.9971      	1.0794      	1.1402      	1.1665      	1.1648      
 demand_10                      	1.1191      	1.1156      	1.1699      	1.1033      	1.0886      	0.9777      
 demand_10                      	0.9780      	1.0892      	0.9962      	0.9966      	0.9752      	0.9875      
 demand_10                      	0.9440      	1.1107      	1.0860      	1.0255      	1.0301      	1.0941      
 demand_10                      	0.9805      	0.9851      	0.8718      	0.8595      	0.7632      	0.6571      
 demand_10                      	0.6318      	0.5541      	0.4951      	0.4422      	0.3997      	0.3830      
 demand_10                      	0.3907      	0.3956      	0.4560      	0.5533      	0.6124      	0.7703      
 demand_10                      	0.8082      	0.9335      	0.9923      	1.0927      	1.2271      	1.0823      
 demand_10                      	1.2555      	1.4036      	1.4475      	1.3696      	1.3610      	1.3142      
 demand_10                      	1.2861      	1.2362      	1.1502      	1.0952      	1.0282      	1.0496      